@<TRIPOS>MOLECULE
A00
    5     0     1     0     0
SMALL
resp


@<TRIPOS>ATOM
      1 B1         -0.0000    0.0000    0.0000 B         1 A00      0.903507
      2 F1         -0.2630   -1.0170   -0.9150 f         1 A00     -0.475877
      3 F2         -0.5990    1.1820   -0.4330 f         1 A00     -0.475877
      4 F3          1.3770    0.1880    0.1020 f         1 A00     -0.475877
      5 F4         -0.5150   -0.3520    1.2460 f         1 A00     -0.475877
@<TRIPOS>BOND
@<TRIPOS>SUBSTRUCTURE
     1 A00         1 TEMP              0 ****  ****    0 ROOT
