@<TRIPOS>MOLECULE
BMI
   25    25     1     0     0
SMALL
resp


@<TRIPOS>ATOM
      1 C1          0.1500   -0.3530   -0.8950 cc        1 BMI     -0.277428
      2 C2          1.4320   -0.3370   -0.5010 cd        1 BMI     -0.152023
      3 C3          0.5060    1.5270    0.1420 cc        1 BMI     -0.034849
      4 N1         -0.4180    0.8320   -0.4820 na        1 BMI      0.175721
      5 H1         -0.4050   -1.0910   -1.4310 h4        1 BMI      0.285546
      6 H2          2.2130   -1.0560   -0.6260 h4        1 BMI      0.243422
      7 H3          0.3600    2.4950    0.5740 h5        1 BMI      0.240223
      8 N2          1.6390    0.8580    0.1530 na        1 BMI      0.124237
      9 C4          2.9040    1.3010    0.7460 c3        1 BMI     -0.287335
     10 H4          3.2070    0.5980    1.5070 h1        1 BMI      0.158979
     11 H5          3.6570    1.3630   -0.0250 h1        1 BMI      0.158979
     12 H6          2.7610    2.2740    1.1890 h1        1 BMI      0.158979
     13 C5         -1.8270    1.2320   -0.6760 c3        1 BMI     -0.205547
     14 H7         -1.8720    2.3020   -0.5260 h1        1 BMI      0.118069
     15 H8         -2.0680    1.0360   -1.7120 h1        1 BMI      0.118069
     16 C6         -2.7720    0.4980    0.2720 c3        1 BMI      0.041266
     17 H9         -2.6760   -0.5730    0.1220 hc        1 BMI      0.020405
     18 H10        -2.4770    0.7020    1.2980 hc        1 BMI      0.020405
     19 C7         -4.2280    0.9220    0.0520 c3        1 BMI      0.105291
     20 H11        -4.3180    1.9960    0.1970 hc        1 BMI      0.013719
     21 H12        -4.5100    0.7230   -0.9790 hc        1 BMI      0.013719
     22 C8         -5.1900    0.1990    0.9930 c3        1 BMI     -0.286995
     23 H13        -4.9540    0.4050    2.0320 hc        1 BMI      0.082383
     24 H14        -6.2100    0.5180    0.8150 hc        1 BMI      0.082383
     25 H15        -5.1490   -0.8760    0.8470 hc        1 BMI      0.082383
@<TRIPOS>BOND
     1    1    2 ar  
     2    1    4 ar  
     3    1    5 1   
     4    2    6 1   
     5    2    8 ar  
     6    3    4 ar  
     7    3    7 1   
     8    3    8 ar  
     9    4   13 1   
    10    8    9 1   
    11    9   10 1   
    12    9   11 1   
    13    9   12 1   
    14   13   14 1   
    15   13   15 1   
    16   13   16 1   
    17   16   17 1   
    18   16   18 1   
    19   16   19 1   
    20   19   20 1   
    21   19   21 1   
    22   19   22 1   
    23   22   23 1   
    24   22   24 1   
    25   22   25 1   
@<TRIPOS>SUBSTRUCTURE
     1 BMI         1 TEMP              0 ****  ****    0 ROOT
