@<TRIPOS>MOLECULE
TF2
   15    14     1     0     0
SMALL
resp


@<TRIPOS>ATOM
      1 N1         -0.3290    0.5320    1.5670 ne        1 TF2     -0.750648
      2 S1         -1.2880   -0.3690    0.6940 s6        1 TF2      1.151347
      3 S2         -0.7600    1.3880    2.8090 sy        1 TF2      1.151347
      4 O1         -1.9650   -1.4100    1.4120 o         1 TF2     -0.577416
      5 O2         -2.0310    0.3490   -0.2970 o         1 TF2     -0.577416
      6 O3          0.0820    2.5370    2.9350 o         1 TF2     -0.577416
      7 O4         -2.1750    1.5440    2.9650 o         1 TF2     -0.577416
      8 C1          0.0070   -1.2300   -0.2450 c3        1 TF2      0.261986
      9 C2         -0.2610    0.3560    4.2230 c3        1 TF2      0.261986
     10 F1         -0.5720   -2.0710   -1.0800 f         1 TF2     -0.127726
     11 F2          0.7380   -0.3990   -0.9490 f         1 TF2     -0.127726
     12 F3          0.8000   -1.9220    0.5400 f         1 TF2     -0.127726
     13 F4          1.0310    0.1080    4.1960 f         1 TF2     -0.127726
     14 F5         -0.9000   -0.7890    4.2380 f         1 TF2     -0.127726
     15 F6         -0.5300    0.9920    5.3470 f         1 TF2     -0.127726
@<TRIPOS>BOND
     1    1    2 2   
     2    1    3 1   
     3    2    4 1   
     4    2    5 2   
     5    2    8 1   
     6    3    6 2   
     7    3    7 2   
     8    3    9 1   
     9    8   10 1   
    10    8   11 1   
    11    8   12 1   
    12    9   13 1   
    13    9   14 1   
    14    9   15 1   
@<TRIPOS>SUBSTRUCTURE
     1 TF2         1 TEMP              0 ****  ****    0 ROOT
