@<TRIPOS>MOLECULE
BMI
   25    25     1     0     0
SMALL
resp


@<TRIPOS>ATOM
      1 C1          0.2810    0.0970   -1.5940 cc        1 BMI     -0.185168
      2 C2          1.3080   -0.0190   -0.7700 cd        1 BMI     -0.083547
      3 C3          0.4460    2.1380   -0.4480 cc        1 BMI     -0.848450
      4 N1         -0.3760    1.3300   -1.4440 na        1 BMI     -0.044757
      5 H1         -0.0320   -0.6170   -2.3410 h4        1 BMI      0.110820
      6 H2          1.9990   -0.8460   -0.7120 h4        1 BMI      0.085762
      7 H3          1.0690    2.7540   -1.1140 h5        1 BMI      0.159271
      8 N2          1.4430    1.1130    0.0640 na        1 BMI     -0.167029
      9 C4          1.3300    0.7910    1.4660 c3        1 BMI     -0.094331
     10 H4          0.3740    0.3350    1.7460 h1        1 BMI      0.036507
     11 H5          2.1210    0.0960    1.7640 h1        1 BMI      0.036507
     12 H6          1.4440    1.6980    2.0490 h1        1 BMI      0.036507
     13 C5         -1.8000    1.2570   -1.2170 c3        1 BMI     -0.374261
     14 H7         -2.1980    2.2650   -1.3110 h1        1 BMI      0.104563
     15 H8         -2.2550    0.6690   -2.0220 h1        1 BMI      0.104563
     16 C6         -2.2580    0.6890    0.1310 c3        1 BMI      0.183877
     17 H9         -1.8960   -0.3320    0.2400 hc        1 BMI      0.018697
     18 H10        -1.7810    1.2800    0.9040 hc        1 BMI      0.018697
     19 C7         -3.7780    0.7090    0.3060 c3        1 BMI      0.092459
     20 H11        -4.1430    1.7290    0.1930 hc        1 BMI     -0.035681
     21 H12        -4.2510    0.1310   -0.4890 hc        1 BMI     -0.035681
     22 C8         -4.2380    0.1630    1.6590 c3        1 BMI     -0.178633
     23 H13        -3.8110    0.7410    2.4740 hc        1 BMI      0.019769
     24 H14        -5.3210    0.1930    1.7610 hc        1 BMI      0.019769
     25 H15        -3.9220   -0.8690    1.7910 hc        1 BMI      0.019769
@<TRIPOS>BOND
     1    1    2 ar  
     2    1    4 ar  
     3    1    5 1   
     4    2    6 1   
     5    2    8 ar  
     6    3    4 ar  
     7    3    7 1   
     8    3    8 ar  
     9    4   13 1   
    10    8    9 1   
    11    9   10 1   
    12    9   11 1   
    13    9   12 1   
    14   13   14 1   
    15   13   15 1   
    16   13   16 1   
    17   16   17 1   
    18   16   18 1   
    19   16   19 1   
    20   19   20 1   
    21   19   21 1   
    22   19   22 1   
    23   22   23 1   
    24   22   24 1   
    25   22   25 1   
@<TRIPOS>SUBSTRUCTURE
     1 BMI         1 TEMP              0 ****  ****    0 ROOT
